output/1_TAP2_1/Cargas_BT_DU09_1_TAP2_1.dss
New "Load.BT_15168_0_M1" bus1="UC15168.1.4" phases=1 conn=delta model=2 kv=0.22 kw = 0.8770384548696101 pf=0.92 status=variable vmaxpu=1.5 vminpu=0.92 daily="RES_2_DU" 
New "Load.BT_15168_0_M2" bus1="UC15168.1.4" phases=1 conn=delta model=3 kv=0.22 kw = 0.8770384548696101 pf=0.92 status=variable vmaxpu=1.5 vminpu=0.92 daily="RES_2_DU"
 
New "Load.BT_15169_1_M1" bus1="UC15169.1.2.3.4" phases=3 conn=delta model=2 kv=0.38 kw = 0.6111142586409237 pf=0.92 status=variable vmaxpu=1.5 vminpu=0.92 daily="RES_2_DU" 
New "Load.BT_15169_1_M2" bus1="UC15169.1.2.3.4" phases=3 conn=delta model=3 kv=0.38 kw = 0.6111142586409237 pf=0.92 status=variable vmaxpu=1.5 vminpu=0.92 daily="RES_2_DU"
 
New "Load.BT_15174_4_M1" bus1="UC15174.1.4" phases=1 conn=delta model=2 kv=0.22 kw = 0.49164399875065684 pf=0.92 status=variable vmaxpu=1.5 vminpu=0.92 daily="RES_10_DU" 
New "Load.BT_15174_4_M2" bus1="UC15174.1.4" phases=1 conn=delta model=3 kv=0.22 kw = 0.49164399875065684 pf=0.92 status=variable vmaxpu=1.5 vminpu=0.92 daily="RES_10_DU"
 
New "Load.BT_13788_5_M1" bus1="UC13788.3.4" phases=1 conn=delta model=2 kv=0.22 kw = 0.37331666009027137 pf=0.92 status=variable vmaxpu=1.5 vminpu=0.92 daily="RES_2_DU" 
New "Load.BT_13788_5_M2" bus1="UC13788.3.4" phases=1 conn=delta model=3 kv=0.22 kw = 0.37331666009027137 pf=0.92 status=variable vmaxpu=1.5 vminpu=0.92 daily="RES_2_DU"
 
New "Load.BT_15175_6_M1" bus1="UC15175.1.2.3.4" phases=3 conn=delta model=2 kv=0.38 kw = 0.7133927956519569 pf=0.92 status=variable vmaxpu=1.5 vminpu=0.92 daily="RES_2_DU" 
New "Load.BT_15175_6_M2" bus1="UC15175.1.2.3.4" phases=3 conn=delta model=3 kv=0.38 kw = 0.7133927956519569 pf=0.92 status=variable vmaxpu=1.5 vminpu=0.92 daily="RES_2_DU"
 
New "Load.BT_10794_8_M1" bus1="ET1_159.2.3.4" phases=2 conn=delta model=2 kv=0.38 kw = 0.4849748759169953 pf=0.92 status=variable vmaxpu=1.5 vminpu=0.92 daily="RES_3_DU" 
New "Load.BT_10794_8_M2" bus1="ET1_159.2.3.4" phases=2 conn=delta model=3 kv=0.38 kw = 0.4849748759169953 pf=0.92 status=variable vmaxpu=1.5 vminpu=0.92 daily="RES_3_DU"
 
New "Load.BT_15178_9_M1" bus1="UC15178.3.4" phases=1 conn=delta model=2 kv=0.22 kw = 0.9063293120635565 pf=0.92 status=variable vmaxpu=1.5 vminpu=0.92 daily="RES_1_DU" 
New "Load.BT_15178_9_M2" bus1="UC15178.3.4" phases=1 conn=delta model=3 kv=0.22 kw = 0.9063293120635565 pf=0.92 status=variable vmaxpu=1.5 vminpu=0.92 daily="RES_1_DU"
 
New "Load.BT_15180_11_M1" bus1="UC15180.1.4" phases=1 conn=delta model=2 kv=0.22 kw = 0.4525825262738221 pf=0.92 status=variable vmaxpu=1.5 vminpu=0.92 daily="RES_2_DU" 
New "Load.BT_15180_11_M2" bus1="UC15180.1.4" phases=1 conn=delta model=3 kv=0.22 kw = 0.4525825262738221 pf=0.92 status=variable vmaxpu=1.5 vminpu=0.92 daily="RES_2_DU"
 
New "Load.BT_15581_15_M1" bus1="UC15581.1.2.3.4" phases=3 conn=delta model=2 kv=0.38 kw = 0.0 pf=0.92 status=variable vmaxpu=1.5 vminpu=0.92 daily="RES_3_DU" 
New "Load.BT_15581_15_M2" bus1="UC15581.1.2.3.4" phases=3 conn=delta model=3 kv=0.38 kw = 0.0 pf=0.92 status=variable vmaxpu=1.5 vminpu=0.92 daily="RES_3_DU"
 
New "Load.BT_15838_16_M1" bus1="UC15838.3.4" phases=1 conn=delta model=2 kv=0.22 kw = 0.0 pf=0.92 status=variable vmaxpu=1.5 vminpu=0.92 daily="RES_7_DU" 
New "Load.BT_15838_16_M2" bus1="UC15838.3.4" phases=1 conn=delta model=3 kv=0.22 kw = 0.0 pf=0.92 status=variable vmaxpu=1.5 vminpu=0.92 daily="RES_7_DU"
 
New "Load.BT_14653_19_M1" bus1="UC14653.1.2.3.4" phases=3 conn=delta model=2 kv=0.38 kw = 0.007994091361269154 pf=0.92 status=variable vmaxpu=1.5 vminpu=0.92 daily="RES_3_DU" 
New "Load.BT_14653_19_M2" bus1="UC14653.1.2.3.4" phases=3 conn=delta model=3 kv=0.38 kw = 0.007994091361269154 pf=0.92 status=variable vmaxpu=1.5 vminpu=0.92 daily="RES_3_DU"
 
New "Load.BT_10919_21_M1" bus1="UC10919.3.4" phases=1 conn=delta model=2 kv=0.22 kw = 0.0 pf=0.92 status=variable vmaxpu=1.5 vminpu=0.92 daily="RES_3_DU" 
New "Load.BT_10919_21_M2" bus1="UC10919.3.4" phases=1 conn=delta model=3 kv=0.22 kw = 0.0 pf=0.92 status=variable vmaxpu=1.5 vminpu=0.92 daily="RES_3_DU"
 
New "Load.BT_16152_22_M1" bus1="UC16152.1.4" phases=1 conn=delta model=2 kv=0.22 kw = 0.0 pf=0.92 status=variable vmaxpu=1.5 vminpu=0.92 daily="RES_7_DU" 
New "Load.BT_16152_22_M2" bus1="UC16152.1.4" phases=1 conn=delta model=3 kv=0.22 kw = 0.0 pf=0.92 status=variable vmaxpu=1.5 vminpu=0.92 daily="RES_7_DU"
 
New "Load.BT_2530_24_M1" bus1="UC2530.1.4" phases=1 conn=delta model=2 kv=0.22 kw = 0.0 pf=0.92 status=variable vmaxpu=1.5 vminpu=0.92 daily="RES_3_DU" 
New "Load.BT_2530_24_M2" bus1="UC2530.1.4" phases=1 conn=delta model=3 kv=0.22 kw = 0.0 pf=0.92 status=variable vmaxpu=1.5 vminpu=0.92 daily="RES_3_DU"
 
New "Load.BT_16140_25_M1" bus1="UC16140.1.2.3.4" phases=3 conn=delta model=2 kv=0.38 kw = 0.0 pf=0.92 status=variable vmaxpu=1.5 vminpu=0.92 daily="RES_3_DU" 
New "Load.BT_16140_25_M2" bus1="UC16140.1.2.3.4" phases=3 conn=delta model=3 kv=0.38 kw = 0.0 pf=0.92 status=variable vmaxpu=1.5 vminpu=0.92 daily="RES_3_DU"
 
New "Load.BT_16156_26_M1" bus1="UC16156.3.4" phases=1 conn=delta model=2 kv=0.22 kw = 0.003308234642680581 pf=0.92 status=variable vmaxpu=1.5 vminpu=0.92 daily="RES_7_DU" 
New "Load.BT_16156_26_M2" bus1="UC16156.3.4" phases=1 conn=delta model=3 kv=0.22 kw = 0.003308234642680581 pf=0.92 status=variable vmaxpu=1.5 vminpu=0.92 daily="RES_7_DU"
 
New "Load.BT_16132_28_M1" bus1="UC16132.3.4" phases=1 conn=delta model=2 kv=0.22 kw = 0.004511731270533367 pf=0.92 status=variable vmaxpu=1.5 vminpu=0.92 daily="COM_5_DU" 
New "Load.BT_16132_28_M2" bus1="UC16132.3.4" phases=1 conn=delta model=3 kv=0.22 kw = 0.004511731270533367 pf=0.92 status=variable vmaxpu=1.5 vminpu=0.92 daily="COM_5_DU"
 
New "Load.BT_8216_30_M1" bus1="UC8216.3.4" phases=1 conn=delta model=2 kv=0.22 kw = 1.2230959782741804 pf=0.92 status=variable vmaxpu=1.5 vminpu=0.92 daily="RES_3_DU" 
New "Load.BT_8216_30_M2" bus1="UC8216.3.4" phases=1 conn=delta model=3 kv=0.22 kw = 1.2230959782741804 pf=0.92 status=variable vmaxpu=1.5 vminpu=0.92 daily="RES_3_DU"
 
New "Load.BT_16139_33_M1" bus1="UC16139.2.4" phases=1 conn=delta model=2 kv=0.22 kw = 0.17320531282749835 pf=0.92 status=variable vmaxpu=1.5 vminpu=0.92 daily="RES_3_DU" 
New "Load.BT_16139_33_M2" bus1="UC16139.2.4" phases=1 conn=delta model=3 kv=0.22 kw = 0.17320531282749835 pf=0.92 status=variable vmaxpu=1.5 vminpu=0.92 daily="RES_3_DU"
 
New "Load.BT_16135_34_M1" bus1="UC16135.3.4" phases=1 conn=delta model=2 kv=0.22 kw = 0.103923187696499 pf=0.92 status=variable vmaxpu=1.5 vminpu=0.92 daily="RES_3_DU" 
New "Load.BT_16135_34_M2" bus1="UC16135.3.4" phases=1 conn=delta model=3 kv=0.22 kw = 0.103923187696499 pf=0.92 status=variable vmaxpu=1.5 vminpu=0.92 daily="RES_3_DU"
 
New "Load.BT_16138_35_M1" bus1="UC16138.3.4" phases=1 conn=delta model=2 kv=0.22 kw = 0.009023462541066734 pf=0.92 status=variable vmaxpu=1.5 vminpu=0.92 daily="COM_5_DU" 
New "Load.BT_16138_35_M2" bus1="UC16138.3.4" phases=1 conn=delta model=3 kv=0.22 kw = 0.009023462541066734 pf=0.92 status=variable vmaxpu=1.5 vminpu=0.92 daily="COM_5_DU"
 
New "Load.BT_8555_36_M1" bus1="UC8555.3.4" phases=1 conn=delta model=2 kv=0.22 kw = 0.3730575968592271 pf=0.92 status=variable vmaxpu=1.5 vminpu=0.92 daily="RES_3_DU" 
New "Load.BT_8555_36_M2" bus1="UC8555.3.4" phases=1 conn=delta model=3 kv=0.22 kw = 0.3730575968592271 pf=0.92 status=variable vmaxpu=1.5 vminpu=0.92 daily="RES_3_DU"
 
New "Load.BT_15362_38_M1" bus1="UC15362.2.3.4" phases=2 conn=delta model=2 kv=0.38 kw = 0.006616469285361162 pf=0.92 status=variable vmaxpu=1.5 vminpu=0.92 daily="RES_7_DU" 
New "Load.BT_15362_38_M2" bus1="UC15362.2.3.4" phases=2 conn=delta model=3 kv=0.38 kw = 0.006616469285361162 pf=0.92 status=variable vmaxpu=1.5 vminpu=0.92 daily="RES_7_DU"
 
New "Load.BT_5102_39_M1" bus1="UC5102.1.4" phases=1 conn=delta model=2 kv=0.22 kw = 0.0 pf=0.92 status=variable vmaxpu=1.5 vminpu=0.92 daily="RES_3_DU" 
New "Load.BT_5102_39_M2" bus1="UC5102.1.4" phases=1 conn=delta model=3 kv=0.22 kw = 0.0 pf=0.92 status=variable vmaxpu=1.5 vminpu=0.92 daily="RES_3_DU"
 
New "Load.BT_7753_40_M1" bus1="UC7753.1.4" phases=1 conn=delta model=2 kv=0.22 kw = 0.03834971579953362 pf=0.92 status=variable vmaxpu=1.5 vminpu=0.92 daily="COM_5_DU" 
New "Load.BT_7753_40_M2" bus1="UC7753.1.4" phases=1 conn=delta model=3 kv=0.22 kw = 0.03834971579953362 pf=0.92 status=variable vmaxpu=1.5 vminpu=0.92 daily="COM_5_DU"
 
New "Load.BT_12439_42_M1" bus1="UC12439.3.4" phases=1 conn=delta model=2 kv=0.22 kw = 0.18386410130919054 pf=0.92 status=variable vmaxpu=1.5 vminpu=0.92 daily="RES_3_DU" 
New "Load.BT_12439_42_M2" bus1="UC12439.3.4" phases=1 conn=delta model=3 kv=0.22 kw = 0.18386410130919054 pf=0.92 status=variable vmaxpu=1.5 vminpu=0.92 daily="RES_3_DU"
 
New "Load.BT_9732_43_M1" bus1="UC9732.1.4" phases=1 conn=delta model=2 kv=0.22 kw = 0.10483550043630907 pf=0.92 status=variable vmaxpu=1.5 vminpu=0.92 daily="RES_2_DU" 
New "Load.BT_9732_43_M2" bus1="UC9732.1.4" phases=1 conn=delta model=3 kv=0.22 kw = 0.10483550043630907 pf=0.92 status=variable vmaxpu=1.5 vminpu=0.92 daily="RES_2_DU"
 
New "Load.BT_1855_44_M1" bus1="UC1855.1.4" phases=1 conn=delta model=2 kv=0.22 kw = 0.4193420017452363 pf=0.92 status=variable vmaxpu=1.5 vminpu=0.92 daily="RES_2_DU" 
New "Load.BT_1855_44_M2" bus1="UC1855.1.4" phases=1 conn=delta model=3 kv=0.22 kw = 0.4193420017452363 pf=0.92 status=variable vmaxpu=1.5 vminpu=0.92 daily="RES_2_DU"
 
New "Load.BT_1136_45_M1" bus1="UC1136.2.4" phases=1 conn=delta model=2 kv=0.22 kw = 0.32089876034001635 pf=0.92 status=variable vmaxpu=1.5 vminpu=0.92 daily="RES_7_DU" 
New "Load.BT_1136_45_M2" bus1="UC1136.2.4" phases=1 conn=delta model=3 kv=0.22 kw = 0.32089876034001635 pf=0.92 status=variable vmaxpu=1.5 vminpu=0.92 daily="RES_7_DU"
 
New "Load.BT_9732_46_M1" bus1="UC9732.2.4" phases=1 conn=delta model=2 kv=0.22 kw = 0.08425279380137068 pf=0.92 status=variable vmaxpu=1.5 vminpu=0.92 daily="RES_9_DU" 
New "Load.BT_9732_46_M2" bus1="UC9732.2.4" phases=1 conn=delta model=3 kv=0.22 kw = 0.08425279380137068 pf=0.92 status=variable vmaxpu=1.5 vminpu=0.92 daily="RES_9_DU"
 
New "Load.BT_15851_48_M1" bus1="UC15851.3.4" phases=1 conn=delta model=2 kv=0.22 kw = 0.20180231320351544 pf=0.92 status=variable vmaxpu=1.5 vminpu=0.92 daily="RES_7_DU" 
New "Load.BT_15851_48_M2" bus1="UC15851.3.4" phases=1 conn=delta model=3 kv=0.22 kw = 0.20180231320351544 pf=0.92 status=variable vmaxpu=1.5 vminpu=0.92 daily="RES_7_DU"
 
New "Load.BT_15850_49_M1" bus1="UC15850.3.1.4" phases=2 conn=delta model=2 kv=0.38 kw = 0.03821870593039093 pf=0.92 status=variable vmaxpu=1.5 vminpu=0.92 daily="RES_1_DU" 
New "Load.BT_15850_49_M2" bus1="UC15850.3.1.4" phases=2 conn=delta model=3 kv=0.38 kw = 0.03821870593039093 pf=0.92 status=variable vmaxpu=1.5 vminpu=0.92 daily="RES_1_DU"
 
New "Load.BT_15688_53_M1" bus1="UC15688.1.4" phases=1 conn=delta model=2 kv=0.22 kw = 0.023982274083807462 pf=0.92 status=variable vmaxpu=1.5 vminpu=0.92 daily="RES_3_DU" 
New "Load.BT_15688_53_M2" bus1="UC15688.1.4" phases=1 conn=delta model=3 kv=0.22 kw = 0.023982274083807462 pf=0.92 status=variable vmaxpu=1.5 vminpu=0.92 daily="RES_3_DU"
 
New "Load.BT_10153_54_M1" bus1="UC10153.2.4" phases=1 conn=delta model=2 kv=0.22 kw = 0.7221329196346469 pf=0.92 status=variable vmaxpu=1.5 vminpu=0.92 daily="RES_3_DU" 
New "Load.BT_10153_54_M2" bus1="UC10153.2.4" phases=1 conn=delta model=3 kv=0.22 kw = 0.7221329196346469 pf=0.92 status=variable vmaxpu=1.5 vminpu=0.92 daily="RES_3_DU"
 
New "Load.BT_15497_56_M1" bus1="UC15497.1.4" phases=1 conn=delta model=2 kv=0.22 kw = 0.6929370882497503 pf=0.92 status=variable vmaxpu=1.5 vminpu=0.92 daily="RES_2_DU" 
New "Load.BT_15497_56_M2" bus1="UC15497.1.4" phases=1 conn=delta model=3 kv=0.22 kw = 0.6929370882497503 pf=0.92 status=variable vmaxpu=1.5 vminpu=0.92 daily="RES_2_DU"
 
New "Load.BT_15497_57_M1" bus1="UC15497.3.4" phases=1 conn=delta model=2 kv=0.22 kw = 0.061367122206619946 pf=0.92 status=variable vmaxpu=1.5 vminpu=0.92 daily="RES_2_DU" 
New "Load.BT_15497_57_M2" bus1="UC15497.3.4" phases=1 conn=delta model=3 kv=0.22 kw = 0.061367122206619946 pf=0.92 status=variable vmaxpu=1.5 vminpu=0.92 daily="RES_2_DU"
 
New "Load.BT_5544_59_M1" bus1="UC5544.2.4" phases=1 conn=delta model=2 kv=0.22 kw = 0.590658551238717 pf=0.92 status=variable vmaxpu=1.5 vminpu=0.92 daily="RES_2_DU" 
New "Load.BT_5544_59_M2" bus1="UC5544.2.4" phases=1 conn=delta model=3 kv=0.22 kw = 0.590658551238717 pf=0.92 status=variable vmaxpu=1.5 vminpu=0.92 daily="RES_2_DU"
 
New "Load.BT_15499_60_M1" bus1="UC15499.3.4" phases=1 conn=delta model=2 kv=0.22 kw = 0.25313937910230727 pf=0.92 status=variable vmaxpu=1.5 vminpu=0.92 daily="RES_2_DU" 
New "Load.BT_15499_60_M2" bus1="UC15499.3.4" phases=1 conn=delta model=3 kv=0.22 kw = 0.25313937910230727 pf=0.92 status=variable vmaxpu=1.5 vminpu=0.92 daily="RES_2_DU"
 
New "Load.BT_8603_62_M1" bus1="UC8603.1.2.3.4" phases=3 conn=delta model=2 kv=0.38 kw = 0.7685443450752322 pf=0.92 status=variable vmaxpu=1.5 vminpu=0.92 daily="COM_1_DU" 
New "Load.BT_8603_62_M2" bus1="UC8603.1.2.3.4" phases=3 conn=delta model=3 kv=0.38 kw = 0.7685443450752322 pf=0.92 status=variable vmaxpu=1.5 vminpu=0.92 daily="COM_1_DU"
 
New "Load.BT_15509_63_M1" bus1="UC15509.1.2.4" phases=2 conn=delta model=2 kv=0.38 kw = 0.010227853701103325 pf=0.92 status=variable vmaxpu=1.5 vminpu=0.92 daily="RES_2_DU" 
New "Load.BT_15509_63_M2" bus1="UC15509.1.2.4" phases=2 conn=delta model=3 kv=0.38 kw = 0.010227853701103325 pf=0.92 status=variable vmaxpu=1.5 vminpu=0.92 daily="RES_2_DU"
 
New "Load.BT_15510_65_M1" bus1="UC15510.1.2.3.4" phases=3 conn=delta model=2 kv=0.38 kw = 0.4475286219922964 pf=0.92 status=variable vmaxpu=1.5 vminpu=0.92 daily="COM_1_DU" 
New "Load.BT_15510_65_M2" bus1="UC15510.1.2.3.4" phases=3 conn=delta model=3 kv=0.38 kw = 0.4475286219922964 pf=0.92 status=variable vmaxpu=1.5 vminpu=0.92 daily="COM_1_DU"
 
New "Load.BT_6671_66_M1" bus1="UC6671.1.4" phases=1 conn=delta model=2 kv=0.22 kw = 0.1892152934704115 pf=0.92 status=variable vmaxpu=1.5 vminpu=0.92 daily="RES_2_DU" 
New "Load.BT_6671_66_M2" bus1="UC6671.1.4" phases=1 conn=delta model=3 kv=0.22 kw = 0.1892152934704115 pf=0.92 status=variable vmaxpu=1.5 vminpu=0.92 daily="RES_2_DU"
 
New "Load.BT_9626_67_M1" bus1="UC9626.3.4" phases=1 conn=delta model=2 kv=0.22 kw = 0.3093925744583756 pf=0.92 status=variable vmaxpu=1.5 vminpu=0.92 daily="RES_2_DU" 
New "Load.BT_9626_67_M2" bus1="UC9626.3.4" phases=1 conn=delta model=3 kv=0.22 kw = 0.3093925744583756 pf=0.92 status=variable vmaxpu=1.5 vminpu=0.92 daily="RES_2_DU"
 
New "Load.BT_13002_68_M1" bus1="UC13002.3.4" phases=1 conn=delta model=2 kv=0.22 kw = 0.04647412612996925 pf=0.92 status=variable vmaxpu=1.5 vminpu=0.92 daily="COM_1_DU" 
New "Load.BT_13002_68_M2" bus1="UC13002.3.4" phases=1 conn=delta model=3 kv=0.22 kw = 0.04647412612996925 pf=0.92 status=variable vmaxpu=1.5 vminpu=0.92 daily="COM_1_DU"
 
New "Load.BT_13331_69_M1" bus1="UC13331.1.4" phases=1 conn=delta model=2 kv=0.22 kw = 0.0025569634252758312 pf=0.92 status=variable vmaxpu=1.5 vminpu=0.92 daily="RES_2_DU" 
New "Load.BT_13331_69_M2" bus1="UC13331.1.4" phases=1 conn=delta model=3 kv=0.22 kw = 0.0025569634252758312 pf=0.92 status=variable vmaxpu=1.5 vminpu=0.92 daily="RES_2_DU"
 
New "Load.BT_14890_70_M1" bus1="UC14890.1.2.3.4" phases=3 conn=delta model=2 kv=0.38 kw = 0.2045570740220665 pf=0.92 status=variable vmaxpu=1.5 vminpu=0.92 daily="RES_2_DU" 
New "Load.BT_14890_70_M2" bus1="UC14890.1.2.3.4" phases=3 conn=delta model=3 kv=0.38 kw = 0.2045570740220665 pf=0.92 status=variable vmaxpu=1.5 vminpu=0.92 daily="RES_2_DU"
 
New "Load.BT_14890_71_M1" bus1="UC14890.1.2.3.4" phases=3 conn=delta model=2 kv=0.38 kw = 0.26848115965396224 pf=0.92 status=variable vmaxpu=1.5 vminpu=0.92 daily="RES_2_DU" 
New "Load.BT_14890_71_M2" bus1="UC14890.1.2.3.4" phases=3 conn=delta model=3 kv=0.38 kw = 0.26848115965396224 pf=0.92 status=variable vmaxpu=1.5 vminpu=0.92 daily="RES_2_DU"
 
New "Load.BT_15137_72_M1" bus1="UC15137.1.2.3.4" phases=3 conn=delta model=2 kv=0.38 kw = 2.7325064900491185 pf=0.92 status=variable vmaxpu=1.5 vminpu=0.92 daily="IND_1_DU" 
New "Load.BT_15137_72_M2" bus1="UC15137.1.2.3.4" phases=3 conn=delta model=3 kv=0.38 kw = 2.7325064900491185 pf=0.92 status=variable vmaxpu=1.5 vminpu=0.92 daily="IND_1_DU"
 
New "Load.BT_7113_73_M1" bus1="UC7113.1.4" phases=1 conn=delta model=2 kv=0.22 kw = 0.3861014772166505 pf=0.92 status=variable vmaxpu=1.5 vminpu=0.92 daily="RES_2_DU" 
New "Load.BT_7113_73_M2" bus1="UC7113.1.4" phases=1 conn=delta model=3 kv=0.22 kw = 0.3861014772166505 pf=0.92 status=variable vmaxpu=1.5 vminpu=0.92 daily="RES_2_DU"
 
New "Load.BT_9718_74_M1" bus1="UC9718.1.4" phases=1 conn=delta model=2 kv=0.22 kw = 0.1483038786659982 pf=0.92 status=variable vmaxpu=1.5 vminpu=0.92 daily="RES_2_DU" 
New "Load.BT_9718_74_M2" bus1="UC9718.1.4" phases=1 conn=delta model=3 kv=0.22 kw = 0.1483038786659982 pf=0.92 status=variable vmaxpu=1.5 vminpu=0.92 daily="RES_2_DU"
 
New "Load.BT_10594_76_M1" bus1="UC10594.3.1.4" phases=2 conn=delta model=2 kv=0.38 kw = 0.18286025870667152 pf=0.92 status=variable vmaxpu=1.5 vminpu=0.92 daily="RES_11_DU" 
New "Load.BT_10594_76_M2" bus1="UC10594.3.1.4" phases=2 conn=delta model=3 kv=0.38 kw = 0.18286025870667152 pf=0.92 status=variable vmaxpu=1.5 vminpu=0.92 daily="RES_11_DU"
 
New "Load.BT_15149_77_M1" bus1="UC15149.1.2.4" phases=2 conn=delta model=2 kv=0.38 kw = 0.28637990363089305 pf=0.92 status=variable vmaxpu=1.5 vminpu=0.92 daily="RES_2_DU" 
New "Load.BT_15149_77_M2" bus1="UC15149.1.2.4" phases=2 conn=delta model=3 kv=0.38 kw = 0.28637990363089305 pf=0.92 status=variable vmaxpu=1.5 vminpu=0.92 daily="RES_2_DU"
 
New "Load.BT_13667_78_M1" bus1="UC13667.1.2.3.4" phases=3 conn=delta model=2 kv=0.38 kw = 0.5491669506849765 pf=0.92 status=variable vmaxpu=1.5 vminpu=0.92 daily="RES_7_DU" 
New "Load.BT_13667_78_M2" bus1="UC13667.1.2.3.4" phases=3 conn=delta model=3 kv=0.38 kw = 0.5491669506849765 pf=0.92 status=variable vmaxpu=1.5 vminpu=0.92 daily="RES_7_DU"
 
New "Load.BT_15154_79_M1" bus1="UC15154.3.4" phases=1 conn=delta model=2 kv=0.22 kw = 0.7152357824116018 pf=0.92 status=variable vmaxpu=1.5 vminpu=0.92 daily="RES_1_DU" 
New "Load.BT_15154_79_M2" bus1="UC15154.3.4" phases=1 conn=delta model=3 kv=0.22 kw = 0.7152357824116018 pf=0.92 status=variable vmaxpu=1.5 vminpu=0.92 daily="RES_1_DU"
 
New "Load.BT_15150_80_M1" bus1="UC15150.1.2.3.4" phases=3 conn=delta model=2 kv=0.38 kw = 0.5318483924573728 pf=0.92 status=variable vmaxpu=1.5 vminpu=0.92 daily="RES_2_DU" 
New "Load.BT_15150_80_M2" bus1="UC15150.1.2.3.4" phases=3 conn=delta model=3 kv=0.38 kw = 0.5318483924573728 pf=0.92 status=variable vmaxpu=1.5 vminpu=0.92 daily="RES_2_DU"
 
New "Load.BT_14783_82_M1" bus1="UC14783.1.2.3.4" phases=3 conn=delta model=2 kv=0.38 kw = 0.29916472075727224 pf=0.92 status=variable vmaxpu=1.5 vminpu=0.92 daily="RES_2_DU" 
New "Load.BT_14783_82_M2" bus1="UC14783.1.2.3.4" phases=3 conn=delta model=3 kv=0.38 kw = 0.29916472075727224 pf=0.92 status=variable vmaxpu=1.5 vminpu=0.92 daily="RES_2_DU"
 
New "Load.BT_10551_83_M1" bus1="UC10551.2.4" phases=1 conn=delta model=2 kv=0.22 kw = 0.28295218978821807 pf=0.92 status=variable vmaxpu=1.5 vminpu=0.92 daily="RES_11_DU" 
New "Load.BT_10551_83_M2" bus1="UC10551.2.4" phases=1 conn=delta model=3 kv=0.22 kw = 0.28295218978821807 pf=0.92 status=variable vmaxpu=1.5 vminpu=0.92 daily="RES_11_DU"
 
New "Load.BT_15130_85_M1" bus1="UC15130.3.4" phases=1 conn=delta model=2 kv=0.22 kw = 0.017212639307396017 pf=0.92 status=variable vmaxpu=1.5 vminpu=0.92 daily="COM_1_DU" 
New "Load.BT_15130_85_M2" bus1="UC15130.3.4" phases=1 conn=delta model=3 kv=0.22 kw = 0.017212639307396017 pf=0.92 status=variable vmaxpu=1.5 vminpu=0.92 daily="COM_1_DU"
 
New "Load.BT_11345_91_M1" bus1="UC11345.3.4" phases=1 conn=delta model=2 kv=0.22 kw = 0.15351382407894096 pf=0.92 status=variable vmaxpu=1.5 vminpu=0.92 daily="RES_8_DU" 
New "Load.BT_11345_91_M2" bus1="UC11345.3.4" phases=1 conn=delta model=3 kv=0.22 kw = 0.15351382407894096 pf=0.92 status=variable vmaxpu=1.5 vminpu=0.92 daily="RES_8_DU"
 
New "Load.BT_1871_94_M1" bus1="UC1871.2.4" phases=1 conn=delta model=2 kv=0.22 kw = 0.3981958913597664 pf=0.92 status=variable vmaxpu=1.5 vminpu=0.92 daily="RES_13_DU" 
New "Load.BT_1871_94_M2" bus1="UC1871.2.4" phases=1 conn=delta model=3 kv=0.22 kw = 0.3981958913597664 pf=0.92 status=variable vmaxpu=1.5 vminpu=0.92 daily="RES_13_DU"
 
New "Load.BT_15581_97_M1" bus1="UC15581.1.2.3.4" phases=3 conn=delta model=2 kv=0.38 kw = 0.09059970209438374 pf=0.92 status=variable vmaxpu=1.5 vminpu=0.92 daily="RES_3_DU" 
New "Load.BT_15581_97_M2" bus1="UC15581.1.2.3.4" phases=3 conn=delta model=3 kv=0.38 kw = 0.09059970209438374 pf=0.92 status=variable vmaxpu=1.5 vminpu=0.92 daily="RES_3_DU"
 
New "Load.BT_14653_98_M1" bus1="UC14653.1.2.3.4" phases=3 conn=delta model=2 kv=0.38 kw = 0.572909880890956 pf=0.92 status=variable vmaxpu=1.5 vminpu=0.92 daily="RES_3_DU" 
New "Load.BT_14653_98_M2" bus1="UC14653.1.2.3.4" phases=3 conn=delta model=3 kv=0.38 kw = 0.572909880890956 pf=0.92 status=variable vmaxpu=1.5 vminpu=0.92 daily="RES_3_DU"
 
New "Load.BT_8216_99_M1" bus1="UC8216.3.4" phases=1 conn=delta model=2 kv=0.22 kw = 0.29578138036695867 pf=0.92 status=variable vmaxpu=1.5 vminpu=0.92 daily="RES_3_DU" 
New "Load.BT_8216_99_M2" bus1="UC8216.3.4" phases=1 conn=delta model=3 kv=0.22 kw = 0.29578138036695867 pf=0.92 status=variable vmaxpu=1.5 vminpu=0.92 daily="RES_3_DU"
 
New "Load.BT_16125_100_M1" bus1="UC16125.1.2.3.4" phases=3 conn=delta model=2 kv=0.38 kw = 0.04300705035484755 pf=0.92 status=variable vmaxpu=1.5 vminpu=0.92 daily="RES_7_DU" 
New "Load.BT_16125_100_M2" bus1="UC16125.1.2.3.4" phases=3 conn=delta model=3 kv=0.38 kw = 0.04300705035484755 pf=0.92 status=variable vmaxpu=1.5 vminpu=0.92 daily="RES_7_DU"
 
New "Load.BT_16120_101_M1" bus1="UC16120.1.2.3.4" phases=3 conn=delta model=2 kv=0.38 kw = 0.415692750785996 pf=0.92 status=variable vmaxpu=1.5 vminpu=0.92 daily="RES_3_DU" 
New "Load.BT_16120_101_M2" bus1="UC16120.1.2.3.4" phases=3 conn=delta model=3 kv=0.38 kw = 0.415692750785996 pf=0.92 status=variable vmaxpu=1.5 vminpu=0.92 daily="RES_3_DU"
 
New "Load.BT_16117_104_M1" bus1="UC16117.1.4" phases=1 conn=delta model=2 kv=0.22 kw = 0.3330871400528814 pf=0.92 status=variable vmaxpu=1.5 vminpu=0.92 daily="RES_3_DU" 
New "Load.BT_16117_104_M2" bus1="UC16117.1.4" phases=1 conn=delta model=3 kv=0.22 kw = 0.3330871400528814 pf=0.92 status=variable vmaxpu=1.5 vminpu=0.92 daily="RES_3_DU"
 
New "Load.BT_2901_106_M1" bus1="UC2901.2.4" phases=1 conn=delta model=2 kv=0.22 kw = 0.7487798908388773 pf=0.92 status=variable vmaxpu=1.5 vminpu=0.92 daily="RES_3_DU" 
New "Load.BT_2901_106_M2" bus1="UC2901.2.4" phases=1 conn=delta model=3 kv=0.22 kw = 0.7487798908388773 pf=0.92 status=variable vmaxpu=1.5 vminpu=0.92 daily="RES_3_DU"
 
New "Load.BT_8431_107_M1" bus1="UC8431.2.4" phases=1 conn=delta model=2 kv=0.22 kw = 0.1678759185866522 pf=0.92 status=variable vmaxpu=1.5 vminpu=0.92 daily="RES_3_DU" 
New "Load.BT_8431_107_M2" bus1="UC8431.2.4" phases=1 conn=delta model=3 kv=0.22 kw = 0.1678759185866522 pf=0.92 status=variable vmaxpu=1.5 vminpu=0.92 daily="RES_3_DU"
 
New "Load.BT_16128_108_M1" bus1="UC16128.1.4" phases=1 conn=delta model=2 kv=0.22 kw = 0.02977411178412523 pf=0.92 status=variable vmaxpu=1.5 vminpu=0.92 daily="RES_7_DU" 
New "Load.BT_16128_108_M2" bus1="UC16128.1.4" phases=1 conn=delta model=3 kv=0.22 kw = 0.02977411178412523 pf=0.92 status=variable vmaxpu=1.5 vminpu=0.92 daily="RES_7_DU"
 
New "Load.BT_15685_113_M1" bus1="UC15685.1.2.3.4" phases=3 conn=delta model=2 kv=0.38 kw = 0.0989726760175271 pf=0.92 status=variable vmaxpu=1.5 vminpu=0.92 daily="COM_1_DU" 
New "Load.BT_15685_113_M2" bus1="UC15685.1.2.3.4" phases=3 conn=delta model=3 kv=0.38 kw = 0.0989726760175271 pf=0.92 status=variable vmaxpu=1.5 vminpu=0.92 daily="COM_1_DU"
 
New "Load.BT_10153_115_M1" bus1="UC10153.2.4" phases=1 conn=delta model=2 kv=0.22 kw = 0.3451900624122372 pf=0.92 status=variable vmaxpu=1.5 vminpu=0.92 daily="RES_2_DU" 
New "Load.BT_10153_115_M2" bus1="UC10153.2.4" phases=1 conn=delta model=3 kv=0.22 kw = 0.3451900624122372 pf=0.92 status=variable vmaxpu=1.5 vminpu=0.92 daily="RES_2_DU"
 
New "Load.BT_15838_116_M1" bus1="UC15838.2.4" phases=1 conn=delta model=2 kv=0.22 kw = 0.0025569634252758312 pf=0.92 status=variable vmaxpu=1.5 vminpu=0.92 daily="RES_2_DU" 
New "Load.BT_15838_116_M2" bus1="UC15838.2.4" phases=1 conn=delta model=3 kv=0.22 kw = 0.0025569634252758312 pf=0.92 status=variable vmaxpu=1.5 vminpu=0.92 daily="RES_2_DU"
 
New "Load.BT_15839_117_M1" bus1="UC15839.2.3.4" phases=2 conn=delta model=2 kv=0.38 kw = 0.004814445360078325 pf=0.92 status=variable vmaxpu=1.5 vminpu=0.92 daily="RES_9_DU" 
New "Load.BT_15839_117_M2" bus1="UC15839.2.3.4" phases=2 conn=delta model=3 kv=0.38 kw = 0.004814445360078325 pf=0.92 status=variable vmaxpu=1.5 vminpu=0.92 daily="RES_9_DU"
 
New "Load.BT_14029_118_M1" bus1="UC14029.1.4" phases=1 conn=delta model=2 kv=0.22 kw = 0.4014432577683055 pf=0.92 status=variable vmaxpu=1.5 vminpu=0.92 daily="RES_2_DU" 
New "Load.BT_14029_118_M2" bus1="UC14029.1.4" phases=1 conn=delta model=3 kv=0.22 kw = 0.4014432577683055 pf=0.92 status=variable vmaxpu=1.5 vminpu=0.92 daily="RES_2_DU"
 
New "Load.BT_15841_120_M1" bus1="UC15841.2.4" phases=1 conn=delta model=2 kv=0.22 kw = 0.0 pf=0.92 status=variable vmaxpu=1.5 vminpu=0.92 daily="RES_4_DU" 
New "Load.BT_15841_120_M2" bus1="UC15841.2.4" phases=1 conn=delta model=3 kv=0.22 kw = 0.0 pf=0.92 status=variable vmaxpu=1.5 vminpu=0.92 daily="RES_4_DU"
 
New "Load.BT_358_126_M1" bus1="UC358.3.1.4" phases=2 conn=delta model=2 kv=0.38 kw = 0.3924481762086292 pf=0.92 status=variable vmaxpu=1.5 vminpu=0.92 daily="COM_1_DU" 
New "Load.BT_358_126_M2" bus1="UC358.3.1.4" phases=2 conn=delta model=3 kv=0.38 kw = 0.3924481762086292 pf=0.92 status=variable vmaxpu=1.5 vminpu=0.92 daily="COM_1_DU"
 
New "Load.BT_6892_128_M1" bus1="UC6892.2.4" phases=1 conn=delta model=2 kv=0.22 kw = 0.17387351291875652 pf=0.92 status=variable vmaxpu=1.5 vminpu=0.92 daily="RES_2_DU" 
New "Load.BT_6892_128_M2" bus1="UC6892.2.4" phases=1 conn=delta model=3 kv=0.22 kw = 0.17387351291875652 pf=0.92 status=variable vmaxpu=1.5 vminpu=0.92 daily="RES_2_DU"
 
New "Load.BT_14783_129_M1" bus1="UC14783.1.2.3.4" phases=3 conn=delta model=2 kv=0.38 kw = 0.0818228296088266 pf=0.92 status=variable vmaxpu=1.5 vminpu=0.92 daily="RES_2_DU" 
New "Load.BT_14783_129_M2" bus1="UC14783.1.2.3.4" phases=3 conn=delta model=3 kv=0.38 kw = 0.0818228296088266 pf=0.92 status=variable vmaxpu=1.5 vminpu=0.92 daily="RES_2_DU"
 
New "Load.BT_15490_130_M1" bus1="UC15490.2.4" phases=1 conn=delta model=2 kv=0.22 kw = 0.409114148044133 pf=0.92 status=variable vmaxpu=1.5 vminpu=0.92 daily="RES_2_DU" 
New "Load.BT_15490_130_M2" bus1="UC15490.2.4" phases=1 conn=delta model=3 kv=0.22 kw = 0.409114148044133 pf=0.92 status=variable vmaxpu=1.5 vminpu=0.92 daily="RES_2_DU"
 
New "Load.BT_15492_131_M1" bus1="UC15492.1.2.3.4" phases=3 conn=delta model=2 kv=0.38 kw = 0.061367122206619946 pf=0.92 status=variable vmaxpu=1.5 vminpu=0.92 daily="RES_2_DU" 
New "Load.BT_15492_131_M2" bus1="UC15492.1.2.3.4" phases=3 conn=delta model=3 kv=0.38 kw = 0.061367122206619946 pf=0.92 status=variable vmaxpu=1.5 vminpu=0.92 daily="RES_2_DU"
 
New "Load.BT_15495_133_M1" bus1="UC15495.1.2.3.4" phases=3 conn=delta model=2 kv=0.38 kw = 0.13167669070157953 pf=0.92 status=variable vmaxpu=1.5 vminpu=0.92 daily="COM_1_DU" 
New "Load.BT_15495_133_M2" bus1="UC15495.1.2.3.4" phases=3 conn=delta model=3 kv=0.38 kw = 0.13167669070157953 pf=0.92 status=variable vmaxpu=1.5 vminpu=0.92 daily="COM_1_DU"
 
New "Load.BT_15493_134_M1" bus1="UC15493.2.4" phases=1 conn=delta model=2 kv=0.22 kw = 0.378430586940823 pf=0.92 status=variable vmaxpu=1.5 vminpu=0.92 daily="RES_2_DU" 
New "Load.BT_15493_134_M2" bus1="UC15493.2.4" phases=1 conn=delta model=3 kv=0.22 kw = 0.378430586940823 pf=0.92 status=variable vmaxpu=1.5 vminpu=0.92 daily="RES_2_DU"
 
New "Load.BT_15496_135_M1" bus1="UC15496.3.4" phases=1 conn=delta model=2 kv=0.38 kw = 0.02045570740220665 pf=0.92 status=variable vmaxpu=1.5 vminpu=0.92 daily="RES_2_DU" 
New "Load.BT_15496_135_M2" bus1="UC15496.3.4" phases=1 conn=delta model=3 kv=0.38 kw = 0.02045570740220665 pf=0.92 status=variable vmaxpu=1.5 vminpu=0.92 daily="RES_2_DU"
 
New "Load.BT_14400_138_M1" bus1="UC14400.1.4" phases=1 conn=delta model=2 kv=0.22 kw = 0.24546848882647979 pf=0.92 status=variable vmaxpu=1.5 vminpu=0.92 daily="RES_2_DU" 
New "Load.BT_14400_138_M2" bus1="UC14400.1.4" phases=1 conn=delta model=3 kv=0.22 kw = 0.24546848882647979 pf=0.92 status=variable vmaxpu=1.5 vminpu=0.92 daily="RES_2_DU"
 
New "Load.BT_6077_139_M1" bus1="UC6077.1.4" phases=1 conn=delta model=2 kv=0.22 kw = 0.378430586940823 pf=0.92 status=variable vmaxpu=1.5 vminpu=0.92 daily="RES_2_DU" 
New "Load.BT_6077_139_M2" bus1="UC6077.1.4" phases=1 conn=delta model=3 kv=0.22 kw = 0.378430586940823 pf=0.92 status=variable vmaxpu=1.5 vminpu=0.92 daily="RES_2_DU"
 
New "Load.BT_7595_141_M1" bus1="UC7595.2.3.4" phases=2 conn=delta model=2 kv=0.38 kw = 0.8601410070969511 pf=0.92 status=variable vmaxpu=1.5 vminpu=0.92 daily="RES_7_DU" 
New "Load.BT_7595_141_M2" bus1="UC7595.2.3.4" phases=2 conn=delta model=3 kv=0.38 kw = 0.8601410070969511 pf=0.92 status=variable vmaxpu=1.5 vminpu=0.92 daily="RES_7_DU"
 
New "Load.BT_10551_142_M1" bus1="UC10551.3.4" phases=1 conn=delta model=2 kv=0.22 kw = 0.2868018794452006 pf=0.92 status=variable vmaxpu=1.5 vminpu=0.92 daily="RES_11_DU" 
New "Load.BT_10551_142_M2" bus1="UC10551.3.4" phases=1 conn=delta model=3 kv=0.22 kw = 0.2868018794452006 pf=0.92 status=variable vmaxpu=1.5 vminpu=0.92 daily="RES_11_DU"
 
New "Load.BT_8865_145_M1" bus1="UC8865.3.4" phases=1 conn=delta model=2 kv=0.22 kw = 0.7163076928371216 pf=0.92 status=variable vmaxpu=1.5 vminpu=0.92 daily="RES_13_DU" 
New "Load.BT_8865_145_M2" bus1="UC8865.3.4" phases=1 conn=delta model=3 kv=0.22 kw = 0.7163076928371216 pf=0.92 status=variable vmaxpu=1.5 vminpu=0.92 daily="RES_13_DU"
 
New "Load.BT_5847_147_M1" bus1="UC5847.2.4" phases=1 conn=delta model=2 kv=0.22 kw = 0.4883800142276838 pf=0.92 status=variable vmaxpu=1.5 vminpu=0.92 daily="RES_2_DU" 
New "Load.BT_5847_147_M2" bus1="UC5847.2.4" phases=1 conn=delta model=3 kv=0.22 kw = 0.4883800142276838 pf=0.92 status=variable vmaxpu=1.5 vminpu=0.92 daily="RES_2_DU"
 
New "Load.BT_8287_148_M1" bus1="UC8287.2.4" phases=1 conn=delta model=2 kv=0.22 kw = 0.3192944591521961 pf=0.92 status=variable vmaxpu=1.5 vminpu=0.92 daily="COM_1_DU" 
New "Load.BT_8287_148_M2" bus1="UC8287.2.4" phases=1 conn=delta model=3 kv=0.22 kw = 0.3192944591521961 pf=0.92 status=variable vmaxpu=1.5 vminpu=0.92 daily="COM_1_DU"
 
New "Load.BT_14783_149_M1" bus1="UC14783.1.2.3.4" phases=3 conn=delta model=2 kv=0.38 kw = 0.23779759855065227 pf=0.92 status=variable vmaxpu=1.5 vminpu=0.92 daily="RES_2_DU" 
New "Load.BT_14783_149_M2" bus1="UC14783.1.2.3.4" phases=3 conn=delta model=3 kv=0.38 kw = 0.23779759855065227 pf=0.92 status=variable vmaxpu=1.5 vminpu=0.92 daily="RES_2_DU"
 
New "Load.BT_8105_150_M1" bus1="UC8105.2.4" phases=1 conn=delta model=2 kv=0.22 kw = 0.04217096630312025 pf=0.92 status=variable vmaxpu=1.5 vminpu=0.92 daily="COM_1_DU" 
New "Load.BT_8105_150_M2" bus1="UC8105.2.4" phases=1 conn=delta model=3 kv=0.22 kw = 0.04217096630312025 pf=0.92 status=variable vmaxpu=1.5 vminpu=0.92 daily="COM_1_DU"
 
New "Load.BT_14783_151_M1" bus1="UC14783.1.2.3.4" phases=3 conn=delta model=2 kv=0.38 kw = 0.5989870707454763 pf=0.92 status=variable vmaxpu=1.5 vminpu=0.92 daily="RES_4_DU" 
New "Load.BT_14783_151_M2" bus1="UC14783.1.2.3.4" phases=3 conn=delta model=3 kv=0.38 kw = 0.5989870707454763 pf=0.92 status=variable vmaxpu=1.5 vminpu=0.92 daily="RES_4_DU"
 
New "Load.BT_11184_154_M1" bus1="UC11184.3.4" phases=1 conn=delta model=2 kv=0.22 kw = 0.23868075873291864 pf=0.92 status=variable vmaxpu=1.5 vminpu=0.92 daily="RES_11_DU" 
New "Load.BT_11184_154_M2" bus1="UC11184.3.4" phases=1 conn=delta model=3 kv=0.22 kw = 0.23868075873291864 pf=0.92 status=variable vmaxpu=1.5 vminpu=0.92 daily="RES_11_DU"
 
New "Load.BT_14890_155_M1" bus1="UC14890.1.2.3.4" phases=3 conn=delta model=2 kv=0.38 kw = 0.2778917099851688 pf=0.92 status=variable vmaxpu=1.5 vminpu=0.92 daily="RES_7_DU" 
New "Load.BT_14890_155_M2" bus1="UC14890.1.2.3.4" phases=3 conn=delta model=3 kv=0.38 kw = 0.2778917099851688 pf=0.92 status=variable vmaxpu=1.5 vminpu=0.92 daily="RES_7_DU"
 
New "Load.BT_15109_157_M1" bus1="UC15109.1.4" phases=1 conn=delta model=2 kv=0.22 kw = 0.48865345439571267 pf=0.92 status=variable vmaxpu=1.5 vminpu=0.92 daily="RES_1_DU" 
New "Load.BT_15109_157_M2" bus1="UC15109.1.4" phases=1 conn=delta model=3 kv=0.22 kw = 0.48865345439571267 pf=0.92 status=variable vmaxpu=1.5 vminpu=0.92 daily="RES_1_DU"
 
New "Load.BT_10549_159_M1" bus1="UC10549.2.4" phases=1 conn=delta model=2 kv=0.22 kw = 0.002581895896109403 pf=0.92 status=variable vmaxpu=1.5 vminpu=0.92 daily="COM_1_DU" 
New "Load.BT_10549_159_M2" bus1="UC10549.2.4" phases=1 conn=delta model=3 kv=0.22 kw = 0.002581895896109403 pf=0.92 status=variable vmaxpu=1.5 vminpu=0.92 daily="COM_1_DU"
 
New "Load.BT_15090_162_M1" bus1="UC15090.3.4" phases=1 conn=delta model=2 kv=0.22 kw = 0.4130280536655729 pf=0.92 status=variable vmaxpu=1.5 vminpu=0.92 daily="RES_3_DU" 
New "Load.BT_15090_162_M2" bus1="UC15090.3.4" phases=1 conn=delta model=3 kv=0.22 kw = 0.4130280536655729 pf=0.92 status=variable vmaxpu=1.5 vminpu=0.92 daily="RES_3_DU"
 
New "Load.BT_11074_165_M1" bus1="UC11074.2.4" phases=1 conn=delta model=2 kv=0.22 kw = 0.09059970209438374 pf=0.92 status=variable vmaxpu=1.5 vminpu=0.92 daily="RES_3_DU" 
New "Load.BT_11074_165_M2" bus1="UC11074.2.4" phases=1 conn=delta model=3 kv=0.22 kw = 0.09059970209438374 pf=0.92 status=variable vmaxpu=1.5 vminpu=0.92 daily="RES_3_DU"
 
New "Load.BT_15673_170_M1" bus1="UC15673.2.3.4" phases=2 conn=delta model=2 kv=0.38 kw = 0.8606971698966455 pf=0.92 status=variable vmaxpu=1.5 vminpu=0.92 daily="RES_3_DU" 
New "Load.BT_15673_170_M2" bus1="UC15673.2.3.4" phases=2 conn=delta model=3 kv=0.38 kw = 0.8606971698966455 pf=0.92 status=variable vmaxpu=1.5 vminpu=0.92 daily="RES_3_DU"
 
New "Load.BT_14821_172_M1" bus1="UC14821.3.4" phases=1 conn=delta model=2 kv=0.22 kw = 0.40503396230430383 pf=0.92 status=variable vmaxpu=1.5 vminpu=0.92 daily="RES_3_DU" 
New "Load.BT_14821_172_M2" bus1="UC14821.3.4" phases=1 conn=delta model=3 kv=0.22 kw = 0.40503396230430383 pf=0.92 status=variable vmaxpu=1.5 vminpu=0.92 daily="RES_3_DU"
 
New "Load.BT_12804_173_M1" bus1="UC12804.1.4" phases=1 conn=delta model=2 kv=0.22 kw = 0.22383455811553632 pf=0.92 status=variable vmaxpu=1.5 vminpu=0.92 daily="RES_3_DU" 
New "Load.BT_12804_173_M2" bus1="UC12804.1.4" phases=1 conn=delta model=3 kv=0.22 kw = 0.22383455811553632 pf=0.92 status=variable vmaxpu=1.5 vminpu=0.92 daily="RES_3_DU"
 
New "Load.BT_11814_175_M1" bus1="UC11814.2.4" phases=1 conn=delta model=2 kv=0.22 kw = 0.23728028778668211 pf=0.92 status=variable vmaxpu=1.5 vminpu=0.92 daily="RES_6_DU" 
New "Load.BT_11814_175_M2" bus1="UC11814.2.4" phases=1 conn=delta model=3 kv=0.22 kw = 0.23728028778668211 pf=0.92 status=variable vmaxpu=1.5 vminpu=0.92 daily="RES_6_DU"
 
New "Load.BT_15821_176_M1" bus1="UC15821.1.2.3.4" phases=3 conn=delta model=2 kv=0.38 kw = 0.07159497590772326 pf=0.92 status=variable vmaxpu=1.5 vminpu=0.92 daily="RES_2_DU" 
New "Load.BT_15821_176_M2" bus1="UC15821.1.2.3.4" phases=3 conn=delta model=3 kv=0.38 kw = 0.07159497590772326 pf=0.92 status=variable vmaxpu=1.5 vminpu=0.92 daily="RES_2_DU"
 
New "Load.BT_7495_177_M1" bus1="UC7495.2.4" phases=1 conn=delta model=2 kv=0.22 kw = 0.358883529559207 pf=0.92 status=variable vmaxpu=1.5 vminpu=0.92 daily="COM_1_DU" 
New "Load.BT_7495_177_M2" bus1="UC7495.2.4" phases=1 conn=delta model=3 kv=0.22 kw = 0.358883529559207 pf=0.92 status=variable vmaxpu=1.5 vminpu=0.92 daily="COM_1_DU"
 
New "Load.BT_5102_178_M1" bus1="UC5102.3.4" phases=1 conn=delta model=2 kv=0.22 kw = 0.19773357315556842 pf=0.92 status=variable vmaxpu=1.5 vminpu=0.92 daily="RES_6_DU" 
New "Load.BT_5102_178_M2" bus1="UC5102.3.4" phases=1 conn=delta model=3 kv=0.22 kw = 0.19773357315556842 pf=0.92 status=variable vmaxpu=1.5 vminpu=0.92 daily="RES_6_DU"
 
New "Load.BT_1753_179_M1" bus1="UC1753.3.4" phases=1 conn=delta model=2 kv=0.22 kw = 0.0025569634252758312 pf=0.92 status=variable vmaxpu=1.5 vminpu=0.92 daily="RES_2_DU" 
New "Load.BT_1753_179_M2" bus1="UC1753.3.4" phases=1 conn=delta model=3 kv=0.22 kw = 0.0025569634252758312 pf=0.92 status=variable vmaxpu=1.5 vminpu=0.92 daily="RES_2_DU"
 
New "Load.BT_11184_183_M1" bus1="UC11184.3.4" phases=1 conn=delta model=2 kv=0.22 kw = 0.06379140102103781 pf=0.92 status=variable vmaxpu=1.5 vminpu=0.92 daily="RES_9_DU" 
New "Load.BT_11184_183_M2" bus1="UC11184.3.4" phases=1 conn=delta model=3 kv=0.22 kw = 0.06379140102103781 pf=0.92 status=variable vmaxpu=1.5 vminpu=0.92 daily="RES_9_DU"
 
New "Load.BT_15510_185_M1" bus1="UC15510.1.2.3.4" phases=3 conn=delta model=2 kv=0.38 kw = 0.004881368296097168 pf=0.92 status=variable vmaxpu=1.5 vminpu=0.92 daily="COM_12_DU" 
New "Load.BT_15510_185_M2" bus1="UC15510.1.2.3.4" phases=3 conn=delta model=3 kv=0.38 kw = 0.004881368296097168 pf=0.92 status=variable vmaxpu=1.5 vminpu=0.92 daily="COM_12_DU"
 
New "Load.BT_15793_186_M1" bus1="UC15793.1.2.3.4" phases=3 conn=delta model=2 kv=0.38 kw = 0.012048847515177213 pf=0.92 status=variable vmaxpu=1.5 vminpu=0.92 daily="COM_1_DU" 
New "Load.BT_15793_186_M2" bus1="UC15793.1.2.3.4" phases=3 conn=delta model=3 kv=0.38 kw = 0.012048847515177213 pf=0.92 status=variable vmaxpu=1.5 vminpu=0.92 daily="COM_1_DU"
 
New "Load.BT_15796_188_M1" bus1="UC15796.3.4" phases=1 conn=delta model=2 kv=0.22 kw = 0.12784817126379158 pf=0.92 status=variable vmaxpu=1.5 vminpu=0.92 daily="RES_2_DU" 
New "Load.BT_15796_188_M2" bus1="UC15796.3.4" phases=1 conn=delta model=3 kv=0.22 kw = 0.12784817126379158 pf=0.92 status=variable vmaxpu=1.5 vminpu=0.92 daily="RES_2_DU"
 
New "Load.BT_15798_190_M1" bus1="UC15798.1.2.3.4" phases=3 conn=delta model=2 kv=0.38 kw = 0.0 pf=0.92 status=variable vmaxpu=1.5 vminpu=0.92 daily="RES_12_DU" 
New "Load.BT_15798_190_M2" bus1="UC15798.1.2.3.4" phases=3 conn=delta model=3 kv=0.38 kw = 0.0 pf=0.92 status=variable vmaxpu=1.5 vminpu=0.92 daily="RES_12_DU"
 
New "Load.BT_10578_191_M1" bus1="UC10578.1.4" phases=1 conn=delta model=2 kv=0.22 kw = 0.4631528499752813 pf=0.92 status=variable vmaxpu=1.5 vminpu=0.92 daily="RES_7_DU" 
New "Load.BT_10578_191_M2" bus1="UC10578.1.4" phases=1 conn=delta model=3 kv=0.22 kw = 0.4631528499752813 pf=0.92 status=variable vmaxpu=1.5 vminpu=0.92 daily="RES_7_DU"
 
New "Load.BT_9738_192_M1" bus1="UC9738.1.4" phases=1 conn=delta model=2 kv=0.22 kw = 0.8304810072533874 pf=0.92 status=variable vmaxpu=1.5 vminpu=0.92 daily="RES_6_DU" 
New "Load.BT_9738_192_M2" bus1="UC9738.1.4" phases=1 conn=delta model=3 kv=0.22 kw = 0.8304810072533874 pf=0.92 status=variable vmaxpu=1.5 vminpu=0.92 daily="RES_6_DU"
 
New "Load.BT_6242_193_M1" bus1="UC6242.2.4" phases=1 conn=delta model=2 kv=0.22 kw = 0.09205068330992992 pf=0.92 status=variable vmaxpu=1.5 vminpu=0.92 daily="RES_2_DU" 
New "Load.BT_6242_193_M2" bus1="UC6242.2.4" phases=1 conn=delta model=3 kv=0.22 kw = 0.09205068330992992 pf=0.92 status=variable vmaxpu=1.5 vminpu=0.92 daily="RES_2_DU"
 
New "Load.BT_11814_195_M1" bus1="UC11814.2.4" phases=1 conn=delta model=2 kv=0.22 kw = 0.10110335256164482 pf=0.92 status=variable vmaxpu=1.5 vminpu=0.92 daily="RES_9_DU" 
New "Load.BT_11814_195_M2" bus1="UC11814.2.4" phases=1 conn=delta model=3 kv=0.22 kw = 0.10110335256164482 pf=0.92 status=variable vmaxpu=1.5 vminpu=0.92 daily="RES_9_DU"
 
New "Load.BT_6619_196_M1" bus1="UC6619.3.4" phases=1 conn=delta model=2 kv=0.22 kw = 0.28637990363089305 pf=0.92 status=variable vmaxpu=1.5 vminpu=0.92 daily="RES_2_DU" 
New "Load.BT_6619_196_M2" bus1="UC6619.3.4" phases=1 conn=delta model=3 kv=0.22 kw = 0.28637990363089305 pf=0.92 status=variable vmaxpu=1.5 vminpu=0.92 daily="RES_2_DU"
 
New "Load.BT_15805_197_M1" bus1="UC15805.1.4" phases=1 conn=delta model=2 kv=0.22 kw = 0.0 pf=0.92 status=variable vmaxpu=1.5 vminpu=0.92 daily="RES_2_DU" 
New "Load.BT_15805_197_M2" bus1="UC15805.1.4" phases=1 conn=delta model=3 kv=0.22 kw = 0.0 pf=0.92 status=variable vmaxpu=1.5 vminpu=0.92 daily="RES_2_DU"
 
New "Load.BT_15807_199_M1" bus1="UC15807.1.2.3.4" phases=3 conn=delta model=2 kv=0.38 kw = 16.063695633627333 pf=0.92 status=variable vmaxpu=1.5 vminpu=0.92 daily="COM_1_DU" 
New "Load.BT_15807_199_M2" bus1="UC15807.1.2.3.4" phases=3 conn=delta model=3 kv=0.38 kw = 16.063695633627333 pf=0.92 status=variable vmaxpu=1.5 vminpu=0.92 daily="COM_1_DU"
 
New "Load.BT_14335_200_M1" bus1="UC14335.2.4" phases=1 conn=delta model=2 kv=0.22 kw = 0.28126597678034143 pf=0.92 status=variable vmaxpu=1.5 vminpu=0.92 daily="RES_2_DU" 
New "Load.BT_14335_200_M2" bus1="UC14335.2.4" phases=1 conn=delta model=3 kv=0.22 kw = 0.28126597678034143 pf=0.92 status=variable vmaxpu=1.5 vminpu=0.92 daily="RES_2_DU"
 
New "Load.BT_12650_202_M1" bus1="UC12650.2.3.4" phases=2 conn=delta model=2 kv=0.38 kw = 0.41191679329713377 pf=0.92 status=variable vmaxpu=1.5 vminpu=0.92 daily="RES_11_DU" 
New "Load.BT_12650_202_M2" bus1="UC12650.2.3.4" phases=2 conn=delta model=3 kv=0.38 kw = 0.41191679329713377 pf=0.92 status=variable vmaxpu=1.5 vminpu=0.92 daily="RES_11_DU"
 
New "Load.BT_10383_203_M1" bus1="UC10383.2.4" phases=1 conn=delta model=2 kv=0.22 kw = 0.17933808966291762 pf=0.92 status=variable vmaxpu=1.5 vminpu=0.92 daily="RES_9_DU" 
New "Load.BT_10383_203_M2" bus1="UC10383.2.4" phases=1 conn=delta model=3 kv=0.22 kw = 0.17933808966291762 pf=0.92 status=variable vmaxpu=1.5 vminpu=0.92 daily="RES_9_DU"
 
New "Load.BT_14653_204_M1" bus1="UC14653.1.2.3.4" phases=3 conn=delta model=2 kv=0.38 kw = 0.6878231613991986 pf=0.92 status=variable vmaxpu=1.5 vminpu=0.92 daily="RES_2_DU" 
New "Load.BT_14653_204_M2" bus1="UC14653.1.2.3.4" phases=3 conn=delta model=3 kv=0.38 kw = 0.6878231613991986 pf=0.92 status=variable vmaxpu=1.5 vminpu=0.92 daily="RES_2_DU"
 
New "Load.BT_5977_205_M1" bus1="UC5977.2.4" phases=1 conn=delta model=2 kv=0.22 kw = 0.10227853701103325 pf=0.92 status=variable vmaxpu=1.5 vminpu=0.92 daily="RES_2_DU" 
New "Load.BT_5977_205_M2" bus1="UC5977.2.4" phases=1 conn=delta model=3 kv=0.22 kw = 0.10227853701103325 pf=0.92 status=variable vmaxpu=1.5 vminpu=0.92 daily="RES_2_DU"
 
New "Load.BT_14783_206_M1" bus1="UC14783.1.2.3.4" phases=3 conn=delta model=2 kv=0.38 kw = 0.3170634647342031 pf=0.92 status=variable vmaxpu=1.5 vminpu=0.92 daily="RES_2_DU" 
New "Load.BT_14783_206_M2" bus1="UC14783.1.2.3.4" phases=3 conn=delta model=3 kv=0.38 kw = 0.3170634647342031 pf=0.92 status=variable vmaxpu=1.5 vminpu=0.92 daily="RES_2_DU"
 
New "Load.BT_6236_207_M1" bus1="UC6236.1.2.3.4" phases=3 conn=delta model=2 kv=0.38 kw = 0.16007754555878298 pf=0.92 status=variable vmaxpu=1.5 vminpu=0.92 daily="COM_1_DU" 
New "Load.BT_6236_207_M2" bus1="UC6236.1.2.3.4" phases=3 conn=delta model=3 kv=0.38 kw = 0.16007754555878298 pf=0.92 status=variable vmaxpu=1.5 vminpu=0.92 daily="COM_1_DU"
 
New "Load.BT_13253_208_M1" bus1="UC13253.1.2.4" phases=2 conn=delta model=2 kv=0.38 kw = 0.28893686705616894 pf=0.92 status=variable vmaxpu=1.5 vminpu=0.92 daily="RES_2_DU" 
New "Load.BT_13253_208_M2" bus1="UC13253.1.2.4" phases=2 conn=delta model=3 kv=0.38 kw = 0.28893686705616894 pf=0.92 status=variable vmaxpu=1.5 vminpu=0.92 daily="RES_2_DU"
 
New "Load.BT_15079_209_M1" bus1="UC15079.3.4" phases=1 conn=delta model=2 kv=0.22 kw = 0.34647206912843026 pf=0.92 status=variable vmaxpu=1.5 vminpu=0.92 daily="RES_11_DU" 
New "Load.BT_15079_209_M2" bus1="UC15079.3.4" phases=1 conn=delta model=3 kv=0.22 kw = 0.34647206912843026 pf=0.92 status=variable vmaxpu=1.5 vminpu=0.92 daily="RES_11_DU"
 
New "Load.BT_2860_210_M1" bus1="UC2860.2.4" phases=1 conn=delta model=2 kv=0.22 kw = 0.38354451379137466 pf=0.92 status=variable vmaxpu=1.5 vminpu=0.92 daily="RES_2_DU" 
New "Load.BT_2860_210_M2" bus1="UC2860.2.4" phases=1 conn=delta model=3 kv=0.22 kw = 0.38354451379137466 pf=0.92 status=variable vmaxpu=1.5 vminpu=0.92 daily="RES_2_DU"
 
New "Load.BT_14783_211_M1" bus1="UC14783.1.2.3.4" phases=3 conn=delta model=2 kv=0.38 kw = 0.3957724620115893 pf=0.92 status=variable vmaxpu=1.5 vminpu=0.92 daily="RES_5_DU" 
New "Load.BT_14783_211_M2" bus1="UC14783.1.2.3.4" phases=3 conn=delta model=3 kv=0.38 kw = 0.3957724620115893 pf=0.92 status=variable vmaxpu=1.5 vminpu=0.92 daily="RES_5_DU"
 
New "Load.BT_5377_212_M1" bus1="UC5377.3.4" phases=1 conn=delta model=2 kv=0.22 kw = 0.009023462541066734 pf=0.92 status=variable vmaxpu=1.5 vminpu=0.92 daily="COM_5_DU" 
New "Load.BT_5377_212_M2" bus1="UC5377.3.4" phases=1 conn=delta model=3 kv=0.22 kw = 0.009023462541066734 pf=0.92 status=variable vmaxpu=1.5 vminpu=0.92 daily="COM_5_DU"
 
New "Load.BT_15362_213_M1" bus1="UC15362.3.1.4" phases=2 conn=delta model=2 kv=0.38 kw = 0.007994091361269154 pf=0.92 status=variable vmaxpu=1.5 vminpu=0.92 daily="RES_3_DU" 
New "Load.BT_15362_213_M2" bus1="UC15362.3.1.4" phases=2 conn=delta model=3 kv=0.38 kw = 0.007994091361269154 pf=0.92 status=variable vmaxpu=1.5 vminpu=0.92 daily="RES_3_DU"
 
New "Load.BT_15362_214_M1" bus1="UC15362.1.2.4" phases=2 conn=delta model=2 kv=0.38 kw = 0.16254652434580613 pf=0.92 status=variable vmaxpu=1.5 vminpu=0.92 daily="RES_3_DU" 
New "Load.BT_15362_214_M2" bus1="UC15362.1.2.4" phases=2 conn=delta model=3 kv=0.38 kw = 0.16254652434580613 pf=0.92 status=variable vmaxpu=1.5 vminpu=0.92 daily="RES_3_DU"
 
New "Load.BT_2835_215_M1" bus1="UC2835.3.4" phases=1 conn=delta model=2 kv=0.22 kw = 0.18386410130919054 pf=0.92 status=variable vmaxpu=1.5 vminpu=0.92 daily="RES_3_DU" 
New "Load.BT_2835_215_M2" bus1="UC2835.3.4" phases=1 conn=delta model=3 kv=0.22 kw = 0.18386410130919054 pf=0.92 status=variable vmaxpu=1.5 vminpu=0.92 daily="RES_3_DU"
 
New "Load.BT_16096_217_M1" bus1="UC16096.2.4" phases=1 conn=delta model=2 kv=0.22 kw = 0.026465877141444646 pf=0.92 status=variable vmaxpu=1.5 vminpu=0.92 daily="RES_7_DU" 
New "Load.BT_16096_217_M2" bus1="UC16096.2.4" phases=1 conn=delta model=3 kv=0.22 kw = 0.026465877141444646 pf=0.92 status=variable vmaxpu=1.5 vminpu=0.92 daily="RES_7_DU"
 
New "Load.BT_16099_218_M1" bus1="UC16099.3.4" phases=1 conn=delta model=2 kv=0.22 kw = 0.0 pf=0.92 status=variable vmaxpu=1.5 vminpu=0.92 daily="COM_1_DU" 
New "Load.BT_16099_218_M2" bus1="UC16099.3.4" phases=1 conn=delta model=3 kv=0.22 kw = 0.0 pf=0.92 status=variable vmaxpu=1.5 vminpu=0.92 daily="COM_1_DU"
 
New "Load.BT_8981_219_M1" bus1="UC8981.3.4" phases=1 conn=delta model=2 kv=0.22 kw = 0.19187760927547368 pf=0.92 status=variable vmaxpu=1.5 vminpu=0.92 daily="RES_7_DU" 
New "Load.BT_8981_219_M2" bus1="UC8981.3.4" phases=1 conn=delta model=3 kv=0.22 kw = 0.19187760927547368 pf=0.92 status=variable vmaxpu=1.5 vminpu=0.92 daily="RES_7_DU"
 
New "Load.BT_16100_220_M1" bus1="UC16100.3.4" phases=1 conn=delta model=2 kv=0.22 kw = 0.21850516387469018 pf=0.92 status=variable vmaxpu=1.5 vminpu=0.92 daily="RES_3_DU" 
New "Load.BT_16100_220_M2" bus1="UC16100.3.4" phases=1 conn=delta model=3 kv=0.22 kw = 0.21850516387469018 pf=0.92 status=variable vmaxpu=1.5 vminpu=0.92 daily="RES_3_DU"
 
New "Load.BT_16103_221_M1" bus1="UC16103.3.4" phases=1 conn=delta model=2 kv=0.22 kw = 0.26913440916272824 pf=0.92 status=variable vmaxpu=1.5 vminpu=0.92 daily="RES_3_DU" 
New "Load.BT_16103_221_M2" bus1="UC16103.3.4" phases=1 conn=delta model=3 kv=0.22 kw = 0.26913440916272824 pf=0.92 status=variable vmaxpu=1.5 vminpu=0.92 daily="RES_3_DU"
 
New "Load.BT_15510_223_M1" bus1="UC15510.1.2.4" phases=2 conn=delta model=2 kv=0.38 kw = 0.3837163853409194 pf=0.92 status=variable vmaxpu=1.5 vminpu=0.92 daily="RES_3_DU" 
New "Load.BT_15510_223_M2" bus1="UC15510.1.2.4" phases=2 conn=delta model=3 kv=0.38 kw = 0.3837163853409194 pf=0.92 status=variable vmaxpu=1.5 vminpu=0.92 daily="RES_3_DU"
 
New "Load.BT_15362_224_M1" bus1="UC15362.1.2.3.4" phases=3 conn=delta model=2 kv=0.38 kw = 0.0022558656352666836 pf=0.92 status=variable vmaxpu=1.5 vminpu=0.92 daily="COM_5_DU" 
New "Load.BT_15362_224_M2" bus1="UC15362.1.2.3.4" phases=3 conn=delta model=3 kv=0.38 kw = 0.0022558656352666836 pf=0.92 status=variable vmaxpu=1.5 vminpu=0.92 daily="COM_5_DU"
 
New "Load.BT_11074_225_M1" bus1="UC11074.3.4" phases=1 conn=delta model=2 kv=0.22 kw = 0.10376981922226744 pf=0.92 status=variable vmaxpu=1.5 vminpu=0.92 daily="COM_5_DU" 
New "Load.BT_11074_225_M2" bus1="UC11074.3.4" phases=1 conn=delta model=3 kv=0.22 kw = 0.10376981922226744 pf=0.92 status=variable vmaxpu=1.5 vminpu=0.92 daily="COM_5_DU"
 
New "Load.BT_16080_226_M1" bus1="UC16080.2.4" phases=1 conn=delta model=2 kv=0.22 kw = 0.31428229105465516 pf=0.92 status=variable vmaxpu=1.5 vminpu=0.92 daily="RES_7_DU" 
New "Load.BT_16080_226_M2" bus1="UC16080.2.4" phases=1 conn=delta model=3 kv=0.22 kw = 0.31428229105465516 pf=0.92 status=variable vmaxpu=1.5 vminpu=0.92 daily="RES_7_DU"
 
New "Load.BT_15581_227_M1" bus1="UC15581.1.2.3.4" phases=3 conn=delta model=2 kv=0.38 kw = 0.207846375392998 pf=0.92 status=variable vmaxpu=1.5 vminpu=0.92 daily="RES_3_DU" 
New "Load.BT_15581_227_M2" bus1="UC15581.1.2.3.4" phases=3 conn=delta model=3 kv=0.38 kw = 0.207846375392998 pf=0.92 status=variable vmaxpu=1.5 vminpu=0.92 daily="RES_3_DU"
 
New "Load.BT_6951_228_M1" bus1="UC6951.3.4" phases=1 conn=delta model=2 kv=0.22 kw = 0.009924703928041742 pf=0.92 status=variable vmaxpu=1.5 vminpu=0.92 daily="RES_7_DU" 
New "Load.BT_6951_228_M2" bus1="UC6951.3.4" phases=1 conn=delta model=3 kv=0.22 kw = 0.009924703928041742 pf=0.92 status=variable vmaxpu=1.5 vminpu=0.92 daily="RES_7_DU"
 
New "Load.BT_11814_230_M1" bus1="UC11814.1.2.4" phases=2 conn=delta model=2 kv=0.38 kw = 0.5435982125663025 pf=0.92 status=variable vmaxpu=1.5 vminpu=0.92 daily="RES_3_DU" 
New "Load.BT_11814_230_M2" bus1="UC11814.1.2.4" phases=2 conn=delta model=3 kv=0.38 kw = 0.5435982125663025 pf=0.92 status=variable vmaxpu=1.5 vminpu=0.92 daily="RES_3_DU"
 
New "Load.BT_5368_231_M1" bus1="UC5368.1.2.3.4" phases=3 conn=delta model=2 kv=0.38 kw = 0.39703987094303467 pf=0.92 status=variable vmaxpu=1.5 vminpu=0.92 daily="RES_3_DU" 
New "Load.BT_5368_231_M2" bus1="UC5368.1.2.3.4" phases=3 conn=delta model=3 kv=0.38 kw = 0.39703987094303467 pf=0.92 status=variable vmaxpu=1.5 vminpu=0.92 daily="RES_3_DU"
 
New "Load.BT_11814_233_M1" bus1="UC11814.3.1.4" phases=2 conn=delta model=2 kv=0.38 kw = 0.15879526284866788 pf=0.92 status=variable vmaxpu=1.5 vminpu=0.92 daily="RES_7_DU" 
New "Load.BT_11814_233_M2" bus1="UC11814.3.1.4" phases=2 conn=delta model=3 kv=0.38 kw = 0.15879526284866788 pf=0.92 status=variable vmaxpu=1.5 vminpu=0.92 daily="RES_7_DU"
 
New "Load.BT_13253_235_M1" bus1="UC13253.1.2.4" phases=2 conn=delta model=2 kv=0.38 kw = 0.3464106256549967 pf=0.92 status=variable vmaxpu=1.5 vminpu=0.92 daily="RES_3_DU" 
New "Load.BT_13253_235_M2" bus1="UC13253.1.2.4" phases=2 conn=delta model=3 kv=0.38 kw = 0.3464106256549967 pf=0.92 status=variable vmaxpu=1.5 vminpu=0.92 daily="RES_3_DU"
 
New "Load.BT_15510_236_M1" bus1="UC15510.3.1.4" phases=2 conn=delta model=2 kv=0.38 kw = 0.0 pf=0.92 status=variable vmaxpu=1.5 vminpu=0.92 daily="RES_7_DU" 
New "Load.BT_15510_236_M2" bus1="UC15510.3.1.4" phases=2 conn=delta model=3 kv=0.38 kw = 0.0 pf=0.92 status=variable vmaxpu=1.5 vminpu=0.92 daily="RES_7_DU"
 
New "Load.BT_12303_237_M1" bus1="UC12303.2.4" phases=1 conn=delta model=2 kv=0.22 kw = 0.03639058106948639 pf=0.92 status=variable vmaxpu=1.5 vminpu=0.92 daily="RES_7_DU" 
New "Load.BT_12303_237_M2" bus1="UC12303.2.4" phases=1 conn=delta model=3 kv=0.22 kw = 0.03639058106948639 pf=0.92 status=variable vmaxpu=1.5 vminpu=0.92 daily="RES_7_DU"
 
New "Load.BT_12262_238_M1" bus1="UC12262.1.4" phases=1 conn=delta model=2 kv=0.22 kw = 0.02977411178412523 pf=0.92 status=variable vmaxpu=1.5 vminpu=0.92 daily="RES_7_DU" 
New "Load.BT_12262_238_M2" bus1="UC12262.1.4" phases=1 conn=delta model=3 kv=0.22 kw = 0.02977411178412523 pf=0.92 status=variable vmaxpu=1.5 vminpu=0.92 daily="RES_7_DU"
 
New "Load.BT_15769_240_M1" bus1="UC15769.2.4" phases=1 conn=delta model=2 kv=0.22 kw = 0.3324052452858581 pf=0.92 status=variable vmaxpu=1.5 vminpu=0.92 daily="RES_2_DU" 
New "Load.BT_15769_240_M2" bus1="UC15769.2.4" phases=1 conn=delta model=3 kv=0.22 kw = 0.3324052452858581 pf=0.92 status=variable vmaxpu=1.5 vminpu=0.92 daily="RES_2_DU"
 
New "Load.BT_9154_242_M1" bus1="UC9154.3.4" phases=1 conn=delta model=2 kv=0.22 kw = 0.3279007788058942 pf=0.92 status=variable vmaxpu=1.5 vminpu=0.92 daily="COM_1_DU" 
New "Load.BT_9154_242_M2" bus1="UC9154.3.4" phases=1 conn=delta model=3 kv=0.22 kw = 0.3279007788058942 pf=0.92 status=variable vmaxpu=1.5 vminpu=0.92 daily="COM_1_DU"
 
New "Load.BT_15771_243_M1" bus1="UC15771.1.2.3.4" phases=3 conn=delta model=2 kv=0.38 kw = 0.29261486822573235 pf=0.92 status=variable vmaxpu=1.5 vminpu=0.92 daily="COM_1_DU" 
New "Load.BT_15771_243_M2" bus1="UC15771.1.2.3.4" phases=3 conn=delta model=3 kv=0.38 kw = 0.29261486822573235 pf=0.92 status=variable vmaxpu=1.5 vminpu=0.92 daily="COM_1_DU"
 
New "Load.BT_15774_244_M1" bus1="UC15774.1.4" phases=1 conn=delta model=2 kv=0.22 kw = 0.33496220871113386 pf=0.92 status=variable vmaxpu=1.5 vminpu=0.92 daily="RES_2_DU" 
New "Load.BT_15774_244_M2" bus1="UC15774.1.4" phases=1 conn=delta model=3 kv=0.22 kw = 0.33496220871113386 pf=0.92 status=variable vmaxpu=1.5 vminpu=0.92 daily="RES_2_DU"
 
New "Load.BT_5019_249_M1" bus1="UC5019.1.4" phases=1 conn=delta model=2 kv=0.22 kw = 0.3809875503660988 pf=0.92 status=variable vmaxpu=1.5 vminpu=0.92 daily="RES_2_DU" 
New "Load.BT_5019_249_M2" bus1="UC5019.1.4" phases=1 conn=delta model=3 kv=0.22 kw = 0.3809875503660988 pf=0.92 status=variable vmaxpu=1.5 vminpu=0.92 daily="RES_2_DU"
 
New "Load.BT_15445_253_M1" bus1="UC15445.3.4" phases=1 conn=delta model=2 kv=0.22 kw = 0.34263309898696137 pf=0.92 status=variable vmaxpu=1.5 vminpu=0.92 daily="RES_2_DU" 
New "Load.BT_15445_253_M2" bus1="UC15445.3.4" phases=1 conn=delta model=3 kv=0.22 kw = 0.34263309898696137 pf=0.92 status=variable vmaxpu=1.5 vminpu=0.92 daily="RES_2_DU"
 
New "Load.BT_7160_254_M1" bus1="UC7160.1.4" phases=1 conn=delta model=2 kv=0.22 kw = 0.05766234167977666 pf=0.92 status=variable vmaxpu=1.5 vminpu=0.92 daily="COM_1_DU" 
New "Load.BT_7160_254_M2" bus1="UC7160.1.4" phases=1 conn=delta model=3 kv=0.22 kw = 0.05766234167977666 pf=0.92 status=variable vmaxpu=1.5 vminpu=0.92 daily="COM_1_DU"
 
New "Load.BT_7914_257_M1" bus1="UC7914.1.4" phases=1 conn=delta model=2 kv=0.22 kw = 0.020655167168875225 pf=0.92 status=variable vmaxpu=1.5 vminpu=0.92 daily="COM_1_DU" 
New "Load.BT_7914_257_M2" bus1="UC7914.1.4" phases=1 conn=delta model=3 kv=0.22 kw = 0.020655167168875225 pf=0.92 status=variable vmaxpu=1.5 vminpu=0.92 daily="COM_1_DU"
 
New "Load.BT_15448_258_M1" bus1="UC15448.1.4" phases=1 conn=delta model=2 kv=0.22 kw = 0.13551906153961907 pf=0.92 status=variable vmaxpu=1.5 vminpu=0.92 daily="RES_2_DU" 
New "Load.BT_15448_258_M2" bus1="UC15448.1.4" phases=1 conn=delta model=3 kv=0.22 kw = 0.13551906153961907 pf=0.92 status=variable vmaxpu=1.5 vminpu=0.92 daily="RES_2_DU"
 
New "Load.BT_10064_260_M1" bus1="UC10064.3.4" phases=1 conn=delta model=2 kv=0.22 kw = 0.23290622424744475 pf=0.92 status=variable vmaxpu=1.5 vminpu=0.92 daily="RES_11_DU" 
New "Load.BT_10064_260_M2" bus1="UC10064.3.4" phases=1 conn=delta model=3 kv=0.22 kw = 0.23290622424744475 pf=0.92 status=variable vmaxpu=1.5 vminpu=0.92 daily="RES_11_DU"
 
New "Load.BT_9638_261_M1" bus1="UC9638.3.4" phases=1 conn=delta model=2 kv=0.22 kw = 0.7043161521457758 pf=0.92 status=variable vmaxpu=1.5 vminpu=0.92 daily="RES_1_DU" 
New "Load.BT_9638_261_M2" bus1="UC9638.3.4" phases=1 conn=delta model=3 kv=0.22 kw = 0.7043161521457758 pf=0.92 status=variable vmaxpu=1.5 vminpu=0.92 daily="RES_1_DU"
 
New "Load.BT_15452_262_M1" bus1="UC15452.1.2.3.4" phases=3 conn=delta model=2 kv=0.38 kw = 0.8872663085707133 pf=0.92 status=variable vmaxpu=1.5 vminpu=0.92 daily="RES_2_DU" 
New "Load.BT_15452_262_M2" bus1="UC15452.1.2.3.4" phases=3 conn=delta model=3 kv=0.38 kw = 0.8872663085707133 pf=0.92 status=variable vmaxpu=1.5 vminpu=0.92 daily="RES_2_DU"
 
New "Load.BT_15581_265_M1" bus1="UC15581.1.4" phases=1 conn=delta model=2 kv=0.22 kw = 0.18919349555003662 pf=0.92 status=variable vmaxpu=1.5 vminpu=0.92 daily="RES_3_DU" 
New "Load.BT_15581_265_M2" bus1="UC15581.1.4" phases=1 conn=delta model=3 kv=0.22 kw = 0.18919349555003662 pf=0.92 status=variable vmaxpu=1.5 vminpu=0.92 daily="RES_3_DU"
 
New "Load.BT_14783_266_M1" bus1="UC14783.1.2.3.4" phases=3 conn=delta model=2 kv=0.38 kw = 0.5542570010479946 pf=0.92 status=variable vmaxpu=1.5 vminpu=0.92 daily="RES_3_DU" 
New "Load.BT_14783_266_M2" bus1="UC14783.1.2.3.4" phases=3 conn=delta model=3 kv=0.38 kw = 0.5542570010479946 pf=0.92 status=variable vmaxpu=1.5 vminpu=0.92 daily="RES_3_DU"
 
New "Load.BT_8867_270_M1" bus1="UC8867.1.4" phases=1 conn=delta model=2 kv=0.22 kw = 0.6661742801057629 pf=0.92 status=variable vmaxpu=1.5 vminpu=0.92 daily="RES_3_DU" 
New "Load.BT_8867_270_M2" bus1="UC8867.1.4" phases=1 conn=delta model=3 kv=0.22 kw = 0.6661742801057629 pf=0.92 status=variable vmaxpu=1.5 vminpu=0.92 daily="RES_3_DU"
 
New "Load.BT_12650_273_M1" bus1="UC12650.2.3.4" phases=2 conn=delta model=2 kv=0.38 kw = 0.38706345319362795 pf=0.92 status=variable vmaxpu=1.5 vminpu=0.92 daily="RES_7_DU" 
New "Load.BT_12650_273_M2" bus1="UC12650.2.3.4" phases=2 conn=delta model=3 kv=0.38 kw = 0.38706345319362795 pf=0.92 status=variable vmaxpu=1.5 vminpu=0.92 daily="RES_7_DU"
 
New "Load.BT_16074_274_M1" bus1="UC16074.1.2.3.4" phases=3 conn=delta model=2 kv=0.38 kw = 9.744797369387099 pf=0.92 status=variable vmaxpu=1.5 vminpu=0.92 daily="RES_3_DU" 
New "Load.BT_16074_274_M2" bus1="UC16074.1.2.3.4" phases=3 conn=delta model=3 kv=0.38 kw = 9.744797369387099 pf=0.92 status=variable vmaxpu=1.5 vminpu=0.92 daily="RES_3_DU"
 
New "Load.BT_16078_276_M1" bus1="UC16078.1.2.4" phases=2 conn=delta model=2 kv=0.38 kw = 0.019849407856083485 pf=0.92 status=variable vmaxpu=1.5 vminpu=0.92 daily="RES_7_DU" 
New "Load.BT_16078_276_M2" bus1="UC16078.1.2.4" phases=2 conn=delta model=3 kv=0.38 kw = 0.019849407856083485 pf=0.92 status=variable vmaxpu=1.5 vminpu=0.92 daily="RES_7_DU"
 
New "Load.BT_15580_277_M1" bus1="UC15580.2.4" phases=1 conn=delta model=2 kv=0.22 kw = 0.2198988545737215 pf=0.92 status=variable vmaxpu=1.5 vminpu=0.92 daily="RES_2_DU" 
New "Load.BT_15580_277_M2" bus1="UC15580.2.4" phases=1 conn=delta model=3 kv=0.22 kw = 0.2198988545737215 pf=0.92 status=variable vmaxpu=1.5 vminpu=0.92 daily="RES_2_DU"
 
New "Load.BT_15707_278_M1" bus1="UC15707.1.4" phases=1 conn=delta model=2 kv=0.22 kw = 0.21222796429789398 pf=0.92 status=variable vmaxpu=1.5 vminpu=0.92 daily="RES_2_DU" 
New "Load.BT_15707_278_M2" bus1="UC15707.1.4" phases=1 conn=delta model=3 kv=0.22 kw = 0.21222796429789398 pf=0.92 status=variable vmaxpu=1.5 vminpu=0.92 daily="RES_2_DU"
 
New "Load.BT_11074_279_M1" bus1="UC11074.1.4" phases=1 conn=delta model=2 kv=0.22 kw = 0.002581895896109403 pf=0.92 status=variable vmaxpu=1.5 vminpu=0.92 daily="COM_1_DU" 
New "Load.BT_11074_279_M2" bus1="UC11074.1.4" phases=1 conn=delta model=3 kv=0.22 kw = 0.002581895896109403 pf=0.92 status=variable vmaxpu=1.5 vminpu=0.92 daily="COM_1_DU"
 
New "Load.BT_8981_281_M1" bus1="UC8981.2.4" phases=1 conn=delta model=2 kv=0.22 kw = 0.29916472075727224 pf=0.92 status=variable vmaxpu=1.5 vminpu=0.92 daily="RES_2_DU" 
New "Load.BT_8981_281_M2" bus1="UC8981.2.4" phases=1 conn=delta model=3 kv=0.22 kw = 0.29916472075727224 pf=0.92 status=variable vmaxpu=1.5 vminpu=0.92 daily="RES_2_DU"
 
New "Load.BT_15761_282_M1" bus1="UC15761.1.2.3.4" phases=3 conn=delta model=2 kv=0.38 kw = 0.34263309898696137 pf=0.92 status=variable vmaxpu=1.5 vminpu=0.92 daily="RES_2_DU" 
New "Load.BT_15761_282_M2" bus1="UC15761.1.2.3.4" phases=3 conn=delta model=3 kv=0.38 kw = 0.34263309898696137 pf=0.92 status=variable vmaxpu=1.5 vminpu=0.92 daily="RES_2_DU"
 
...