output/1_TAP2_1/Cargas_MT_DU09_1_TAP2_1.dss
New "Load.MT_8447_0_M1" bus1="84471.1.2.3.4" phases=3 conn=delta model=2 kv=13.8 kw = 49.57911535834779 pf=0.92 status=variable vmaxpu=1.5 vminpu=0.93 daily="6_DU" 
New "Load.MT_8447_0_M2" bus1="84471.1.2.3.4" phases=3 conn=delta model=3 kv=13.8 kw = 49.57911535834779 pf=0.92 status=variable vmaxpu=1.5 vminpu=0.93 daily="6_DU"
 
New "Load.MT_8366_2_M1" bus1="83661.1.2.3.4" phases=3 conn=delta model=2 kv=13.8 kw = 1.66875 pf=0.92 status=variable vmaxpu=1.5 vminpu=0.93 daily="4_DU" 
New "Load.MT_8366_2_M2" bus1="83661.1.2.3.4" phases=3 conn=delta model=3 kv=13.8 kw = 1.66875 pf=0.92 status=variable vmaxpu=1.5 vminpu=0.93 daily="4_DU"
 
New "Load.MT_8392_3_M1" bus1="83921.1.2.3.4" phases=3 conn=delta model=2 kv=13.8 kw = 16.812844729776824 pf=0.92 status=variable vmaxpu=1.5 vminpu=0.93 daily="6_DU" 
New "Load.MT_8392_3_M2" bus1="83921.1.2.3.4" phases=3 conn=delta model=3 kv=13.8 kw = 16.812844729776824 pf=0.92 status=variable vmaxpu=1.5 vminpu=0.93 daily="6_DU"
 
New "Load.MT_6931_4_M1" bus1="69311.1.2.3.4" phases=3 conn=delta model=2 kv=13.8 kw = 581.2248837839787 pf=0.92 status=variable vmaxpu=1.5 vminpu=0.93 daily="3_DU" 
New "Load.MT_6931_4_M2" bus1="69311.1.2.3.4" phases=3 conn=delta model=3 kv=13.8 kw = 581.2248837839787 pf=0.92 status=variable vmaxpu=1.5 vminpu=0.93 daily="3_DU"
 
New "Load.MT_8108_6_M1" bus1="81081.1.2.3.4" phases=3 conn=delta model=2 kv=13.8 kw = 12.82597257084855 pf=0.92 status=variable vmaxpu=1.5 vminpu=0.93 daily="6_DU" 
New "Load.MT_8108_6_M2" bus1="81081.1.2.3.4" phases=3 conn=delta model=3 kv=13.8 kw = 12.82597257084855 pf=0.92 status=variable vmaxpu=1.5 vminpu=0.93 daily="6_DU"
 
New "Load.MT_983_10_M1" bus1="9831.1.2.3.4" phases=3 conn=delta model=2 kv=13.8 kw = 67.46957333733607 pf=0.92 status=variable vmaxpu=1.5 vminpu=0.93 daily="6_DU" 
New "Load.MT_983_10_M2" bus1="9831.1.2.3.4" phases=3 conn=delta model=3 kv=13.8 kw = 67.46957333733607 pf=0.92 status=variable vmaxpu=1.5 vminpu=0.93 daily="6_DU"
 
New "Load.MT_7525_13_M1" bus1="75251.1.2.3.4" phases=3 conn=delta model=2 kv=13.8 kw = 1.4772263968889352 pf=0.92 status=variable vmaxpu=1.5 vminpu=0.93 daily="5_DU" 
New "Load.MT_7525_13_M2" bus1="75251.1.2.3.4" phases=3 conn=delta model=3 kv=13.8 kw = 1.4772263968889352 pf=0.92 status=variable vmaxpu=1.5 vminpu=0.93 daily="5_DU"
 
New "Load.MT_7286_14_M1" bus1="72861.1.2.3.4" phases=3 conn=delta model=2 kv=13.8 kw = 29.008914984095888 pf=0.92 status=variable vmaxpu=1.5 vminpu=0.93 daily="9_DU" 
New "Load.MT_7286_14_M2" bus1="72861.1.2.3.4" phases=3 conn=delta model=3 kv=13.8 kw = 29.008914984095888 pf=0.92 status=variable vmaxpu=1.5 vminpu=0.93 daily="9_DU"
 
New "Load.MT_6804_16_M1" bus1="68041.1.2.3.4" phases=3 conn=delta model=2 kv=13.8 kw = 12.388666142432076 pf=0.92 status=variable vmaxpu=1.5 vminpu=0.93 daily="1_DU" 
New "Load.MT_6804_16_M2" bus1="68041.1.2.3.4" phases=3 conn=delta model=3 kv=13.8 kw = 12.388666142432076 pf=0.92 status=variable vmaxpu=1.5 vminpu=0.93 daily="1_DU"
 
New "Load.MT_6914_17_M1" bus1="69141.1.2.3.4" phases=3 conn=delta model=2 kv=13.8 kw = 50.82441814925807 pf=0.92 status=variable vmaxpu=1.5 vminpu=0.93 daily="7_DU" 
New "Load.MT_6914_17_M2" bus1="69141.1.2.3.4" phases=3 conn=delta model=3 kv=13.8 kw = 50.82441814925807 pf=0.92 status=variable vmaxpu=1.5 vminpu=0.93 daily="7_DU"
 
New "Load.MT_822_18_M1" bus1="8221.1.2.3.4" phases=3 conn=delta model=2 kv=13.8 kw = 17.924802545434066 pf=0.92 status=variable vmaxpu=1.5 vminpu=0.93 daily="1_DU" 
New "Load.MT_822_18_M2" bus1="8221.1.2.3.4" phases=3 conn=delta model=3 kv=13.8 kw = 17.924802545434066 pf=0.92 status=variable vmaxpu=1.5 vminpu=0.93 daily="1_DU"
 
New "Load.MT_6806_19_M1" bus1="68061.1.2.3.4" phases=3 conn=delta model=2 kv=13.8 kw = 16.343049287433494 pf=0.92 status=variable vmaxpu=1.5 vminpu=0.93 daily="1_DU" 
New "Load.MT_6806_19_M2" bus1="68061.1.2.3.4" phases=3 conn=delta model=3 kv=13.8 kw = 16.343049287433494 pf=0.92 status=variable vmaxpu=1.5 vminpu=0.93 daily="1_DU"
 
New "Load.MT_2005_22_M1" bus1="20051.1.2.3.4" phases=3 conn=delta model=2 kv=13.8 kw = 8.404513272274144 pf=0.92 status=variable vmaxpu=1.5 vminpu=0.93 daily="2_DU" 
New "Load.MT_2005_22_M2" bus1="20051.1.2.3.4" phases=3 conn=delta model=3 kv=13.8 kw = 8.404513272274144 pf=0.92 status=variable vmaxpu=1.5 vminpu=0.93 daily="2_DU"
 
New "Load.MT_7479_23_M1" bus1="74791.1.2.3.4" phases=3 conn=delta model=2 kv=13.8 kw = 17.311509660568127 pf=0.92 status=variable vmaxpu=1.5 vminpu=0.93 daily="2_DU" 
New "Load.MT_7479_23_M2" bus1="74791.1.2.3.4" phases=3 conn=delta model=3 kv=13.8 kw = 17.311509660568127 pf=0.92 status=variable vmaxpu=1.5 vminpu=0.93 daily="2_DU"
 
New "Load.MT_1443_24_M1" bus1="14431.1.2.3.4" phases=3 conn=delta model=2 kv=13.8 kw = 1.8445116117144773 pf=0.92 status=variable vmaxpu=1.5 vminpu=0.93 daily="1_DU" 
New "Load.MT_1443_24_M2" bus1="14431.1.2.3.4" phases=3 conn=delta model=3 kv=13.8 kw = 1.8445116117144773 pf=0.92 status=variable vmaxpu=1.5 vminpu=0.93 daily="1_DU"
 
...